data_image0
_chemical_formula_structural       Mg2Fe
_chemical_formula_sum              "Mg2 Fe1"
_cell_length_a       5.2
_cell_length_b       5.2
_cell_length_c       8.5
_cell_angle_alpha    90.0
_cell_angle_beta     90.0
_cell_angle_gamma    90.0

_space_group_name_H-M_alt    "P 1"
_space_group_IT_number       1

loop_
  _space_group_symop_operation_xyz
  'x, y, z'

loop_
  _atom_site_type_symbol
  _atom_site_label
  _atom_site_symmetry_multiplicity
  _atom_site_fract_x
  _atom_site_fract_y
  _atom_site_fract_z
  _atom_site_occupancy
  Mg  Mg1       1.0  0.0  0.0  0.0  1.0000
  Mg  Mg2       1.0  0.0641025641025641  0.1282051282051282  0.058823529411764705  1.0000
  Fe  Fe1       1.0  0.1282051282051282  0.0641025641025641  0.058823529411764705  1.0000
