data_image0
_chemical_formula_structural       Mg3Fe2
_chemical_formula_sum              "Mg3 Fe2"
_cell_length_a       6.0
_cell_length_b       6.0
_cell_length_c       8.0
_cell_angle_alpha    90.0
_cell_angle_beta     90.0
_cell_angle_gamma    90.0

_space_group_name_H-M_alt    "P 1"
_space_group_IT_number       1

loop_
  _space_group_symop_operation_xyz
  'x, y, z'

loop_
  _atom_site_type_symbol
  _atom_site_label
  _atom_site_symmetry_multiplicity
  _atom_site_fract_x
  _atom_site_fract_y
  _atom_site_fract_z
  _atom_site_occupancy
  Mg  Mg1       1.0  0.0  0.0  0.0  1.0000
  Mg  Mg2       1.0  0.08333333333333333  0.0  0.0625  1.0000
  Mg  Mg3       1.0  0.0  0.08333333333333333  0.0625  1.0000
  Fe  Fe1       1.0  0.041666666666666664  0.041666666666666664  0.03125  1.0000
  Fe  Fe2       1.0  0.125  0.125  0.09375  1.0000
